/*--------------------------------*- C++ -*----------------------------------*\
| =========                 |                                                 |
| \\      /  F ield         | OpenFOAM: The Open Source CFD Toolbox           |
|  \\    /   O peration     | Version:  2306                                  |
|   \\  /    A nd           | Website:  www.openfoam.com                      |
|    \\/     M anipulation  |                                                 |
\*---------------------------------------------------------------------------*/
FoamFile
{
    version     2.0;
    format      ascii;
    arch        "LSB;label=32;scalar=64";
    class       polyBoundaryMesh;
    location    "constant/polyMesh";
    object      boundary;
}
// * * * * * * * * * * * * * * * * * * * * * * * * * * * * * * * * * * * * * //

8
(
    inlet
    {
        type            patch;
        nFaces          104;
        startFace       17772;
    }
    outlet
    {
        type            patch;
        nFaces          0;
        startFace       17876;
    }
    bottom
    {
        type            symmetryPlane;
        inGroups        1(symmetryPlane);
        nFaces          0;
        startFace       17876;
    }
    top
    {
        type            patch;
        nFaces          78;
        startFace       17876;
    }
    obstacle
    {
        type            wall;
        inGroups        1(wall);
        nFaces          0;
        startFace       17954;
    }
    defaultFaces
    {
        type            empty;
        inGroups        1(empty);
        nFaces          17966;
        startFace       17954;
    }
    procBoundary2to0
    {
        type            processor;
        inGroups        1(processor);
        nFaces          97;
        startFace       35920;
        matchTolerance  0.0001;
        transform       unknown;
        myProcNo        2;
        neighbProcNo    0;
    }
    procBoundary2to3
    {
        type            processor;
        inGroups        1(processor);
        nFaces          109;
        startFace       36017;
        matchTolerance  0.0001;
        transform       unknown;
        myProcNo        2;
        neighbProcNo    3;
    }
)

// ************************************************************************* //
