/*--------------------------------*- C++ -*----------------------------------*\
| =========                 |                                                 |
| \\      /  F ield         | OpenFOAM: The Open Source CFD Toolbox           |
|  \\    /   O peration     | Version:  2306                                  |
|   \\  /    A nd           | Website:  www.openfoam.com                      |
|    \\/     M anipulation  |                                                 |
\*---------------------------------------------------------------------------*/
FoamFile
{
    version     2.0;
    format      ascii;
    arch        "LSB;label=32;scalar=64";
    class       polyBoundaryMesh;
    location    "constant/polyMesh";
    object      boundary;
}
// * * * * * * * * * * * * * * * * * * * * * * * * * * * * * * * * * * * * * //

8
(
    inlet
    {
        type            patch;
        nFaces          0;
        startFace       17873;
    }
    outlet
    {
        type            patch;
        nFaces          102;
        startFace       17873;
    }
    bottom
    {
        type            symmetryPlane;
        inGroups        1(symmetryPlane);
        nFaces          0;
        startFace       17975;
    }
    top
    {
        type            patch;
        nFaces          0;
        startFace       17975;
    }
    obstacle
    {
        type            wall;
        inGroups        1(wall);
        nFaces          88;
        startFace       17975;
    }
    defaultFaces
    {
        type            empty;
        inGroups        1(empty);
        nFaces          18064;
        startFace       18063;
    }
    procBoundary1to0
    {
        type            processor;
        inGroups        1(processor);
        nFaces          103;
        startFace       36127;
        matchTolerance  0.0001;
        transform       unknown;
        myProcNo        1;
        neighbProcNo    0;
    }
    procBoundary1to3
    {
        type            processor;
        inGroups        1(processor);
        nFaces          89;
        startFace       36230;
        matchTolerance  0.0001;
        transform       unknown;
        myProcNo        1;
        neighbProcNo    3;
    }
)

// ************************************************************************* //
