/*--------------------------------*- C++ -*----------------------------------*\
| =========                 |                                                 |
| \\      /  F ield         | OpenFOAM: The Open Source CFD Toolbox           |
|  \\    /   O peration     | Version:  2306                                  |
|   \\  /    A nd           | Website:  www.openfoam.com                      |
|    \\/     M anipulation  |                                                 |
\*---------------------------------------------------------------------------*/
FoamFile
{
    version     2.0;
    format      ascii;
    arch        "LSB;label=32;scalar=64";
    class       polyBoundaryMesh;
    location    "constant/polyMesh";
    object      boundary;
}
// * * * * * * * * * * * * * * * * * * * * * * * * * * * * * * * * * * * * * //

9
(
    inlet
    {
        type            patch;
        nFaces          96;
        startFace       17687;
    }
    outlet
    {
        type            patch;
        nFaces          0;
        startFace       17783;
    }
    bottom
    {
        type            symmetryPlane;
        inGroups        1(symmetryPlane);
        nFaces          80;
        startFace       17783;
    }
    top
    {
        type            patch;
        nFaces          0;
        startFace       17863;
    }
    obstacle
    {
        type            wall;
        inGroups        1(wall);
        nFaces          12;
        startFace       17863;
    }
    defaultFaces
    {
        type            empty;
        inGroups        1(empty);
        nFaces          17882;
        startFace       17875;
    }
    procBoundary0to1
    {
        type            processor;
        inGroups        1(processor);
        nFaces          103;
        startFace       35757;
        matchTolerance  0.0001;
        transform       unknown;
        myProcNo        0;
        neighbProcNo    1;
    }
    procBoundary0to2
    {
        type            processor;
        inGroups        1(processor);
        nFaces          97;
        startFace       35860;
        matchTolerance  0.0001;
        transform       unknown;
        myProcNo        0;
        neighbProcNo    2;
    }
    procBoundary0to3
    {
        type            processor;
        inGroups        1(processor);
        nFaces          2;
        startFace       35957;
        matchTolerance  0.0001;
        transform       unknown;
        myProcNo        0;
        neighbProcNo    3;
    }
)

// ************************************************************************* //
